%nprocshared=2
%mem=1000mb
%chk=Mo10O14.chk
#B3LYP/Gen pseudo=read nosymm opt IOp(5/13=1) scf=(conver=6) POP=(Full, NBO)

Mo10O14

0 1
 Mo                12.01111900    7.97621700   10.06772700
 Mo                11.99173200   11.85568600   10.05188900
 Mo                10.47070900    9.91568000   11.75143400
 Mo                 7.54351900    9.89957700   11.00235900
 Mo                10.34252500   11.98511300    7.94364100
 Mo                12.46250100    9.91057500    8.37842800
 Mo                 7.46694800    8.57954000    8.68623000
 Mo                 9.85629200    9.90182600    9.33299800
 Mo                10.36439400    7.81303900    7.95917700
 Mo                 7.45386900   11.19775900    8.67460500
 O                  6.58991000    8.32437000   10.40529700
 O                 13.62677400    8.51446500    9.36176300
 O                 11.53372800   11.45816500   11.92518400
 O                 11.30305200    6.50770400    9.07634400
 O                 13.61202900   11.32857800    9.34859700
 O                 11.54746600    8.38434200   11.93740600
 O                  8.74312500    9.91150400   12.53659500
 O                 11.62562400   11.25265100    6.88706600
 O                 11.26812800   13.30899700    9.04950900
 O                 11.64131100    8.55082000    6.89772800
 O                  8.50394000   12.48199200    7.67365600
 O                  8.53028300    7.29912500    7.69344500
 O                  6.46727000    9.87898300    7.66281700
 O                  6.57535900   11.46051100   10.39186700

Mo O 0 
LANL2DZ    
**** 
 
Mo O 0                                    
LANL2DZ  

END
ech "Job done. "

