%nprocshared=2
%mem=1000MB
%chk=Mo10O14.chk
#p #b3lyp/gen pseudo=read nosymm opt freq iop=(5/13=1) scf=(conver=6) pop=(full,nbo) output=(wfn=5)

Mo10O14

0 1
Mo               12.0111190000        7.9762170000       10.0677270000
Mo               11.9917320000       11.8556860000       10.0518890000
Mo               10.4707090000        9.9156800000       11.7514340000
Mo                7.5435190000        9.8995770000       11.0023590000
Mo               10.3425250000       11.9851130000        7.9436410000
Mo               12.4625010000        9.9105750000        8.3784280000
Mo                7.4669480000        8.5795400000        8.6862300000
Mo                9.8562920000        9.9018260000        9.3329980000
Mo               10.3643940000        7.8130390000        7.9591770000
Mo                7.4538690000       11.1977590000        8.6746050000
O                 6.5899100000        8.3243700000       10.4052970000
O                13.6267740000        8.5144650000        9.3617630000
O                11.5337280000       11.4581650000       11.9251840000
O                11.3030520000        6.5077040000        9.0763440000
O                13.6120290000       11.3285780000        9.3485970000
O                11.5474660000        8.3843420000       11.9374060000
O                 8.7431250000        9.9115040000       12.5365950000
O                11.6256240000       11.2526510000        6.8870660000
O                11.2681280000       13.3089970000        9.0495090000
O                11.6413110000        8.5508200000        6.8977280000
O                 8.5039400000       12.4819920000        7.6736560000
O                 8.5302830000        7.2991250000        7.6934450000
O                 6.4672700000        9.8789830000        7.6628170000
O                 6.5753590000       11.4605110000       10.3918670000

Mo O 0 
LANL2DZ    
**** 
 
Mo O 0                                    
LANL2DZ  

END
ech "Job done. "

